Mpro-x0387_0
     RDKit          3D

 13 14  0  0  0  0  0  0  0  0999 V2000
    9.0650   -4.7370   27.6980 O   0  0  0  0  0  0  0  0  0  0  0  0
    9.2630   -5.0400   26.3380 C   0  0  0  0  0  0  0  0  0  0  0  0
   10.5520   -4.5380   25.9490 C   0  0  0  0  0  0  0  0  0  0  0  0
   10.4810   -3.0380   25.6850 C   0  0  0  0  0  0  0  0  0  0  0  0
    9.7300   -2.7840   24.4990 N   0  0  0  0  0  0  0  0  0  0  0  0
    9.6860   -1.6170   24.1270 C   0  0  0  0  0  0  0  0  0  0  0  0
   11.0770   -1.2320   23.6120 C   0  0  0  0  0  0  0  0  0  0  0  0
   11.9690   -0.1320   24.1710 C   0  0  0  0  0  0  0  0  0  0  0  0
   13.2030   -0.0890   23.4410 C   0  0  0  0  0  0  0  0  0  0  0  0
   13.2070   -1.2250   22.2850 S   0  0  0  0  0  0  0  0  0  0  0  0
   11.7550   -1.8900   22.5360 C   0  0  0  0  0  0  0  0  0  0  0  0
    8.5600   -3.6210   24.3460 C   0  0  0  0  0  0  0  0  0  0  0  0
    8.1750   -4.4830   25.5640 C   0  0  0  0  0  0  0  0  0  0  0  0
  2  1  1  0
  2  3  1  0
  2 13  1  0
  3  4  1  0
 13 12  1  0
  4  5  1  0
  5  6  1  0
  5 12  1  0
  6  7  1  0
  7  8  1  0
  7 11  2  0
  8  9  2  0
 11 10  1  0
  9 10  1  0
M  END
