Mpro-x2193_0
     RDKit          2D

 12 13  0  0  0  0  0  0  0  0999 V2000
    5.0456   -2.1321    0.0000 N   0  0  0  0  0  0  0  0  0  0  0  0
    5.0456    0.3429    0.0000 C   0  0  0  0  0  0  0  0  0  0  0  0
    5.0456   -3.7821    0.0000 N   0  0  0  0  0  0  0  0  0  0  0  0
    5.7600   -0.0696    0.0000 C   0  0  0  0  0  0  0  0  0  0  0  0
    5.7600   -0.8946    0.0000 C   0  0  0  0  0  0  0  0  0  0  0  0
    5.0456   -1.3071    0.0000 C   0  0  0  0  0  0  0  0  0  0  0  0
    4.3311   -0.8946    0.0000 C   0  0  0  0  0  0  0  0  0  0  0  0
    4.3311   -0.0696    0.0000 C   0  0  0  0  0  0  0  0  0  0  0  0
    5.7600   -2.5446    0.0000 C   0  0  0  0  0  0  0  0  0  0  0  0
    5.7600   -3.3696    0.0000 C   0  0  0  0  0  0  0  0  0  0  0  0
    4.3311   -3.3696    0.0000 C   0  0  0  0  0  0  0  0  0  0  0  0
    4.3311   -2.5446    0.0000 C   0  0  0  0  0  0  0  0  0  0  0  0
  1  6  1  0
  1  9  1  0
  1 12  1  0
  6  5  1  0
  6  7  1  0
  9 10  1  0
 12 11  1  0
  2  4  1  0
  2  8  1  0
  4  5  1  0
  8  7  1  0
  3 10  1  0
  3 11  1  0
M  END