
     RDKit          3D

 10 10  0  0  0  0  0  0  0  0999 V2000
   17.3410    1.4040   15.6300 O   0  0  0  0  0  0  0  0  0  0  0  0
   16.4400    2.1870   15.2350 C   0  0  0  0  0  0  0  0  0  0  0  0
   15.2530    1.8470   15.5410 O   0  0  0  0  0  0  0  0  0  0  0  0
   16.7060    3.4620   14.6760 C   0  0  0  0  0  0  0  0  0  0  0  0
   18.0480    3.9210   14.6600 C   0  0  0  0  0  0  0  0  0  0  0  0
   18.4420    5.2100   14.1920 C   0  0  0  0  0  0  0  0  0  0  0  0
   17.3440    5.9500   13.6530 C   0  0  0  0  0  0  0  0  0  0  0  0
   17.5460    7.2150   13.0840 O   0  0  0  0  0  0  0  0  0  0  0  0
   16.0150    5.4960   13.6580 C   0  0  0  0  0  0  0  0  0  0  0  0
   15.6810    4.2780   14.2290 C   0  0  0  0  0  0  0  0  0  0  0  0
  2  1  2  0
  3  2  1  0
  4  2  1  0
  5  4  2  0
  6  5  1  0
  7  6  2  0
  8  7  1  0
  9  7  1  0
 10  9  2  0
 10  4  1  0
M  END
